examples/tutorial/gld_modifier/modified_R4-25.00-1.glm
clock {
  timezone EST+5EDT;
  timestamp '2000-01-01 0:00:00';
  stoptime '2000-01-01 0:01:00';
}

#set profiler=1

module powerflow {
  solver_method NR;
  default_maximum_voltage_error 1e-6;
}
module residential;
module tape;

object node {
  name R4_25_00_1_node_45;
  phases CN;
  nominal_voltage 14400.0;
  voltage_C -7200.00+12470.76j;
}

object node {
  name R4_25_00_1_node_94;
  phases CN;
  nominal_voltage 14400.0;
  voltage_C -7200.00+12470.76j;
}

object node {
  name R4_25_00_1_node_161;
  phases CN;
  nominal_voltage 14400.0;
  voltage_C -7200.00+12470.76j;
}

object node {
  name R4_25_00_1_node_96;
  phases CN;
  nominal_voltage 14400.0;
  voltage_C -7200.00+12470.76j;
}

object node {
  name R4_25_00_1_node_162;
  phases CN;
  nominal_voltage 14400.0;
  voltage_C -7200.00+12470.76j;
}

object node {
  name R4_25_00_1_node_77;
  phases CN;
  nominal_voltage 14400.0;
  voltage_C -7200.00+12470.76j;
}

object node {
  name R4_25_00_1_node_134;
  phases CN;
  nominal_voltage 14400.0;
  voltage_C -7200.00+12470.76j;
}

object node {
  name R4_25_00_1_node_78;
  phases CN;
  nominal_voltage 14400.0;
  voltage_C -7200.00+12470.76j;
}

object node {
  name R4_25_00_1_node_79;
  phases CN;
  nominal_voltage 14400.0;
  voltage_C -7200.00+12470.76j;
}

object node {
  name R4_25_00_1_node_48;
  phases CN;
  nominal_voltage 14400.0;
  voltage_C -7200.00+12470.76j;
}

object node {
  name R4_25_00_1_node_80;
  phases CN;
  nominal_voltage 14400.0;
  voltage_C -7200.00+12470.76j;
}

object node {
  name R4_25_00_1_node_53;
  phases CN;
  nominal_voltage 14400.0;
  voltage_C -7200.00+12470.76j;
}

object node {
  name R4_25_00_1_node_81;
  phases CN;
  nominal_voltage 14400.0;
  voltage_C -7200.00+12470.76j;
}

object node {
  name R4_25_00_1_node_176;
  phases CN;
  nominal_voltage 14400.0;
  voltage_C -7200.00+12470.76j;
}

object node {
  name R4_25_00_1_node_82;
  phases CN;
  nominal_voltage 14400.0;
  voltage_C -7200.00+12470.76j;
}

object node {
  name R4_25_00_1_node_49;
  phases CN;
  nominal_voltage 14400.0;
  voltage_C -7200.00+12470.76j;
}

object node {
  name R4_25_00_1_node_83;
  phases CN;
  nominal_voltage 14400.0;
  voltage_C -7200.00+12470.76j;
}

object node {
  name R4_25_00_1_node_51;
  phases CN;
  nominal_voltage 14400.0;
  voltage_C -7200.00+12470.76j;
}

object node {
  name R4_25_00_1_node_84;
  phases CN;
  nominal_voltage 14400.0;
  voltage_C -7200.00+12470.76j;
}

object node {
  name R4_25_00_1_node_23;
  phases ABCN;
  nominal_voltage 14400.0;
  voltage_A 14400.0+0.0j;
  voltage_B -7200.00-12470.76j;
  voltage_C -7200.00+12470.76j;
}

object node {
  name R4_25_00_1_node_85;
  phases BN;
  nominal_voltage 14400.0;
  voltage_B -7200.00-12470.76j;
}

object node {
  name R4_25_00_1_node_32;
  phases ABCN;
  nominal_voltage 14400.0;
  voltage_A 14400.0+0.0j;
  voltage_B -7200.00-12470.76j;
  voltage_C -7200.00+12470.76j;
}

object node {
  name R4_25_00_1_node_86;
  phases CN;
  nominal_voltage 14400.0;
  voltage_C -7200.00+12470.76j;
}

object node {
  name R4_25_00_1_node_156;
  phases ABCN;
  nominal_voltage 14400.0;
  voltage_A 14400.0+0.0j;
  voltage_B -7200.00-12470.76j;
  voltage_C -7200.00+12470.76j;
}

object node {
  name R4_25_00_1_node_87;
  phases BN;
  nominal_voltage 14400.0;
  voltage_B -7200.00-12470.76j;
}

object node {
  name R4_25_00_1_node_13;
  phases ABCN;
  nominal_voltage 14400.0;
  voltage_A 14400.0+0.0j;
  voltage_B -7200.00-12470.76j;
  voltage_C -7200.00+12470.76j;
}

object node {
  name R4_25_00_1_node_102;
  phases AN;
  nominal_voltage 14400.0;
  voltage_A 14400.0+0.0j;
}

object node {
  name R4_25_00_1_node_88;
  phases AN;
  nominal_voltage 14400.0;
  voltage_A 14400.0+0.0j;
}

object node {
  name R4_25_00_1_node_19;
  phases ABCN;
  nominal_voltage 14400.0;
  voltage_A 14400.0+0.0j;
  voltage_B -7200.00-12470.76j;
  voltage_C -7200.00+12470.76j;
}

object node {
  name R4_25_00_1_node_89;
  phases BN;
  nominal_voltage 14400.0;
  voltage_B -7200.00-12470.76j;
}

object node {
  name R4_25_00_1_node_151;
  phases ACN;
  nominal_voltage 14400.0;
  voltage_A 14400.0+0.0j;
  voltage_C -7200.00+12470.76j;
}

object node {
  name R4_25_00_1_node_90;
  phases CN;
  nominal_voltage 14400.0;
  voltage_C -7200.00+12470.76j;
}

object node {
  name R4_25_00_1_node_154;
  phases ABCN;
  nominal_voltage 14400.0;
  voltage_A 14400.0+0.0j;
  voltage_B -7200.00-12470.76j;
  voltage_C -7200.00+12470.76j;
}

object node {
  name R4_25_00_1_node_91;
  phases AN;
  nominal_voltage 14400.0;
  voltage_A 14400.0+0.0j;
}

object node {
  name R4_25_00_1_node_15;
  phases ABCN;
  nominal_voltage 14400.0;
  voltage_A 14400.0+0.0j;
  voltage_B -7200.00-12470.76j;
  voltage_C -7200.00+12470.76j;
}

object node {
  name R4_25_00_1_node_92;
  phases CN;
  nominal_voltage 14400.0;
  voltage_C -7200.00+12470.76j;
}

object node {
  name R4_25_00_1_node_65;
  phases CN;
  nominal_voltage 14400.0;
  voltage_C -7200.00+12470.76j;
}

object node {
  name R4_25_00_1_node_93;
  phases CN;
  nominal_voltage 14400.0;
  voltage_C -7200.00+12470.76j;
}

object node {
  name R4_25_00_1_node_38;
  phases CN;
  nominal_voltage 14400.0;
  voltage_C -7200.00+12470.76j;
}

object node {
  name R4_25_00_1_node_97;
  phases CN;
  nominal_voltage 14400.0;
  voltage_C -7200.00+12470.76j;
}

object node {
  name R4_25_00_1_node_145;
  phases CN;
  nominal_voltage 14400.0;
  voltage_C -7200.00+12470.76j;
}

object node {
  name R4_25_00_1_node_98;
  phases CN;
  nominal_voltage 14400.0;
  voltage_C -7200.00+12470.76j;
}

object node {
  name R4_25_00_1_node_50;
  phases CN;
  nominal_voltage 14400.0;
  voltage_C -7200.00+12470.76j;
}

object node {
  name R4_25_00_1_node_99;
  phases CN;
  nominal_voltage 14400.0;
  voltage_C -7200.00+12470.76j;
}

object node {
  name R4_25_00_1_node_40;
  phases CN;
  nominal_voltage 14400.0;
  voltage_C -7200.00+12470.76j;
}

object node {
  name R4_25_00_1_node_100;
  phases CN;
  nominal_voltage 14400.0;
  voltage_C -7200.00+12470.76j;
}

object node {
  name R4_25_00_1_node_190;
  phases CN;
  nominal_voltage 14400.0;
  voltage_C -7200.00+12470.76j;
}

object node {
  name R4_25_00_1_node_101;
  phases CN;
  nominal_voltage 14400.0;
  voltage_C -7200.00+12470.76j;
}

object node {
  name R4_25_00_1_node_1;
  phases CN;
  nominal_voltage 14400.0;
  voltage_C -7200.00+12470.76j;
}

object node {
  name R4_25_00_1_node_95;
  phases CN;
  nominal_voltage 14400.0;
  voltage_C -7200.00+12470.76j;
}

object node {
  name R4_25_00_1_node_46;
  phases CN;
  nominal_voltage 14400.0;
  voltage_C -7200.00+12470.76j;
}

object node {
  name R4_25_00_1_node_103;
  phases CN;
  nominal_voltage 14400.0;
  voltage_C -7200.00+12470.76j;
}

object node {
  name R4_25_00_1_node_59;
  phases CN;
  nominal_voltage 14400.0;
  voltage_C -7200.00+12470.76j;
}

object node {
  name R4_25_00_1_node_76;
  phases CN;
  nominal_voltage 14400.0;
  voltage_C -7200.00+12470.76j;
}

object node {
  name R4_25_00_1_node_127;
  phases ABCN;
  nominal_voltage 14400.0;
  voltage_A 14400.0+0.0j;
  voltage_B -7200.00-12470.76j;
  voltage_C -7200.00+12470.76j;
}

object node {
  name R4_25_00_1_node_74;
  phases ABCN;
  nominal_voltage 14400.0;
  voltage_A 14400.0+0.0j;
  voltage_B -7200.00-12470.76j;
  voltage_C -7200.00+12470.76j;
}

object node {
  name R4_25_00_1_node_2;
  phases ABCN;
  nominal_voltage 14400.0;
  voltage_A 14400.0+0.0j;
  voltage_B -7200.00-12470.76j;
  voltage_C -7200.00+12470.76j;
}

object node {
  name R4_25_00_1_node_75;
  phases ABCN;
  nominal_voltage 14400.0;
  voltage_A 14400.0+0.0j;
  voltage_B -7200.00-12470.76j;
  voltage_C -7200.00+12470.76j;
}

object node {
  name R4_25_00_1_node_73;
  phases ABCN;
  nominal_voltage 14400.0;
  voltage_A 14400.0+0.0j;
  voltage_B -7200.00-12470.76j;
  voltage_C -7200.00+12470.76j;
}

object node {
  name R4_25_00_1_node_25;
  phases CN;
  nominal_voltage 14400.0;
  voltage_C -7200.00+12470.76j;
}

object node {
  name R4_25_00_1_node_104;
  phases CN;
  nominal_voltage 14400.0;
  voltage_C -7200.00+12470.76j;
}

object node {
  name R4_25_00_1_node_5;
  phases BN;
  nominal_voltage 14400.0;
  voltage_B -7200.00-12470.76j;
}

object node {
  name R4_25_00_1_node_130;
  phases BN;
  nominal_voltage 14400.0;
  voltage_B -7200.00-12470.76j;
}

object node {
  name R4_25_00_1_node_4;
  phases BN;
  nominal_voltage 14400.0;
  voltage_B -7200.00-12470.76j;
}

object node {
  name R4_25_00_1_node_71;
  phases CN;
  nominal_voltage 14400.0;
  voltage_C -7200.00+12470.76j;
}

object node {
  name R4_25_00_1_node_166;
  phases CN;
  nominal_voltage 14400.0;
  voltage_C -7200.00+12470.76j;
}

object node {
  name R4_25_00_1_node_167;
  phases CN;
  nominal_voltage 14400.0;
  voltage_C -7200.00+12470.76j;
}

object node {
  name R4_25_00_1_node_168;
  phases CN;
  nominal_voltage 14400.0;
  voltage_C -7200.00+12470.76j;
}

object node {
  name R4_25_00_1_node_68;
  phases CN;
  nominal_voltage 14400.0;
  voltage_C -7200.00+12470.76j;
}

object node {
  name R4_25_00_1_node_69;
  phases CN;
  nominal_voltage 14400.0;
  voltage_C -7200.00+12470.76j;
}

object node {
  name R4_25_00_1_node_163;
  phases CN;
  nominal_voltage 14400.0;
  voltage_C -7200.00+12470.76j;
}

object node {
  name R4_25_00_1_node_11;
  phases ABCN;
  nominal_voltage 14400.0;
  voltage_A 14400.0+0.0j;
  voltage_B -7200.00-12470.76j;
  voltage_C -7200.00+12470.76j;
}

object node {
  name R4_25_00_1_node_12;
  phases ABCN;
  nominal_voltage 14400.0;
  voltage_A 14400.0+0.0j;
  voltage_B -7200.00-12470.76j;
  voltage_C -7200.00+12470.76j;
}

object node {
  name R4_25_00_1_node_57;
  phases CN;
  nominal_voltage 14400.0;
  voltage_C -7200.00+12470.76j;
}

object node {
  name R4_25_00_1_node_199;
  phases CN;
  nominal_voltage 14400.0;
  voltage_C -7200.00+12470.76j;
}

object node {
  name R4_25_00_1_node_55;
  phases CN;
  nominal_voltage 14400.0;
  voltage_C -7200.00+12470.76j;
}

object node {
  name R4_25_00_1_node_195;
  phases CN;
  nominal_voltage 14400.0;
  voltage_C -7200.00+12470.76j;
}

object node {
  name R4_25_00_1_node_64;
  phases CN;
  nominal_voltage 14400.0;
  voltage_C -7200.00+12470.76j;
}

object node {
  name R4_25_00_1_node_204;
  phases CN;
  nominal_voltage 14400.0;
  voltage_C -7200.00+12470.76j;
}

object node {
  name R4_25_00_1_node_203;
  phases CN;
  nominal_voltage 14400.0;
  voltage_C -7200.00+12470.76j;
}

object node {
  name R4_25_00_1_node_33;
  phases CN;
  nominal_voltage 14400.0;
  voltage_C -7200.00+12470.76j;
}

object node {
  name R4_25_00_1_node_106;
  phases CN;
  nominal_voltage 14400.0;
  voltage_C -7200.00+12470.76j;
}

object node {
  name R4_25_00_1_node_37;
  phases CN;
  nominal_voltage 14400.0;
  voltage_C -7200.00+12470.76j;
}

object node {
  name R4_25_00_1_node_22;
  phases ABCN;
  nominal_voltage 14400.0;
  voltage_A 14400.0+0.0j;
  voltage_B -7200.00-12470.76j;
  voltage_C -7200.00+12470.76j;
}

object node {
  name R4_25_00_1_node_24;
  phases ABCN;
  nominal_voltage 14400.0;
  voltage_A 14400.0+0.0j;
  voltage_B -7200.00-12470.76j;
  voltage_C -7200.00+12470.76j;
}

object node {
  name R4_25_00_1_node_116;
  phases BN;
  nominal_voltage 14400.0;
  voltage_B -7200.00-12470.76j;
}

object node {
  name R4_25_00_1_node_8;
  phases BN;
  nominal_voltage 14400.0;
  voltage_B -7200.00-12470.76j;
}

object node {
  name R4_25_00_1_node_118;
  phases BN;
  nominal_voltage 14400.0;
  voltage_B -7200.00-12470.76j;
}

object node {
  name R4_25_00_1_node_119;
  phases BN;
  nominal_voltage 14400.0;
  voltage_B -7200.00-12470.76j;
}

object node {
  name R4_25_00_1_node_120;
  phases BN;
  nominal_voltage 14400.0;
  voltage_B -7200.00-12470.76j;
}

object node {
  name R4_25_00_1_node_121;
  phases BN;
  nominal_voltage 14400.0;
  voltage_B -7200.00-12470.76j;
}

object node {
  name R4_25_00_1_node_7;
  phases BN;
  nominal_voltage 14400.0;
  voltage_B -7200.00-12470.76j;
}

object node {
  name R4_25_00_1_node_122;
  phases BN;
  nominal_voltage 14400.0;
  voltage_B -7200.00-12470.76j;
}

object node {
  name R4_25_00_1_node_123;
  phases BN;
  nominal_voltage 14400.0;
  voltage_B -7200.00-12470.76j;
}

object node {
  name R4_25_00_1_node_124;
  phases BN;
  nominal_voltage 14400.0;
  voltage_B -7200.00-12470.76j;
}

object node {
  name R4_25_00_1_node_125;
  phases BN;
  nominal_voltage 14400.0;
  voltage_B -7200.00-12470.76j;
}

object node {
  name R4_25_00_1_node_10;
  phases BN;
  nominal_voltage 14400.0;
  voltage_B -7200.00-12470.76j;
}

object node {
  name R4_25_00_1_node_18;
  phases ABCN;
  nominal_voltage 14400.0;
  voltage_A 14400.0+0.0j;
  voltage_B -7200.00-12470.76j;
  voltage_C -7200.00+12470.76j;
}

object node {
  name R4_25_00_1_node_30;
  phases ABCN;
  nominal_voltage 14400.0;
  voltage_A 14400.0+0.0j;
  voltage_B -7200.00-12470.76j;
  voltage_C -7200.00+12470.76j;
}

object node {
  name R4_25_00_1_node_31;
  phases AN;
  nominal_voltage 14400.0;
  voltage_A 14400.0+0.0j;
}

object node {
  name R4_25_00_1_node_131;
  phases BN;
  nominal_voltage 14400.0;
  voltage_B -7200.00-12470.76j;
}

object node {
  name R4_25_00_1_node_164;
  phases CN;
  nominal_voltage 14400.0;
  voltage_C -7200.00+12470.76j;
}

object node {
  name R4_25_00_1_node_165;
  phases CN;
  nominal_voltage 14400.0;
  voltage_C -7200.00+12470.76j;
}

object node {
  name R4_25_00_1_node_137;
  phases CN;
  nominal_voltage 14400.0;
  voltage_C -7200.00+12470.76j;
}

object node {
  name R4_25_00_1_node_35;
  phases CN;
  nominal_voltage 14400.0;
  voltage_C -7200.00+12470.76j;
}

object node {
  name R4_25_00_1_node_135;
  phases CN;
  nominal_voltage 14400.0;
  voltage_C -7200.00+12470.76j;
}

object node {
  name R4_25_00_1_node_47;
  phases CN;
  nominal_voltage 14400.0;
  voltage_C -7200.00+12470.76j;
}

object node {
  name R4_25_00_1_node_144;
  phases CN;
  nominal_voltage 14400.0;
  voltage_C -7200.00+12470.76j;
}

object node {
  name R4_25_00_1_node_143;
  phases CN;
  nominal_voltage 14400.0;
  voltage_C -7200.00+12470.76j;
}

object node {
  name R4_25_00_1_node_44;
  phases CN;
  nominal_voltage 14400.0;
  voltage_C -7200.00+12470.76j;
}

object node {
  name R4_25_00_1_node_142;
  phases CN;
  nominal_voltage 14400.0;
  voltage_C -7200.00+12470.76j;
}

object node {
  name R4_25_00_1_node_141;
  phases CN;
  nominal_voltage 14400.0;
  voltage_C -7200.00+12470.76j;
}

object node {
  name R4_25_00_1_node_42;
  phases CN;
  nominal_voltage 14400.0;
  voltage_C -7200.00+12470.76j;
}

object node {
  name R4_25_00_1_node_52;
  phases CN;
  nominal_voltage 14400.0;
  voltage_C -7200.00+12470.76j;
}

object node {
  name R4_25_00_1_node_43;
  phases CN;
  nominal_voltage 14400.0;
  voltage_C -7200.00+12470.76j;
}

object node {
  name R4_25_00_1_node_41;
  phases CN;
  nominal_voltage 14400.0;
  voltage_C -7200.00+12470.76j;
}

object node {
  name R4_25_00_1_node_177;
  phases CN;
  nominal_voltage 14400.0;
  voltage_C -7200.00+12470.76j;
}

object node {
  name R4_25_00_1_node_171;
  phases CN;
  nominal_voltage 14400.0;
  voltage_C -7200.00+12470.76j;
}

object node {
  name R4_25_00_1_node_174;
  phases CN;
  nominal_voltage 14400.0;
  voltage_C -7200.00+12470.76j;
}

object node {
  name R4_25_00_1_node_66;
  phases CN;
  nominal_voltage 14400.0;
  voltage_C -7200.00+12470.76j;
}

object node {
  name R4_25_00_1_node_189;
  phases ABCN;
  nominal_voltage 14400.0;
  voltage_A 14400.0+0.0j;
  voltage_B -7200.00-12470.76j;
  voltage_C -7200.00+12470.76j;
}

object node {
  name R4_25_00_1_node_188;
  phases ABCN;
  nominal_voltage 14400.0;
  voltage_A 14400.0+0.0j;
  voltage_B -7200.00-12470.76j;
  voltage_C -7200.00+12470.76j;
}

object node {
  name R4_25_00_1_node_187;
  phases ABCN;
  nominal_voltage 14400.0;
  voltage_A 14400.0+0.0j;
  voltage_B -7200.00-12470.76j;
  voltage_C -7200.00+12470.76j;
}

object node {
  name R4_25_00_1_node_186;
  phases ABCN;
  nominal_voltage 14400.0;
  voltage_A 14400.0+0.0j;
  voltage_B -7200.00-12470.76j;
  voltage_C -7200.00+12470.76j;
}

object node {
  name R4_25_00_1_node_26;
  phases ABCN;
  nominal_voltage 14400.0;
  voltage_A 14400.0+0.0j;
  voltage_B -7200.00-12470.76j;
  voltage_C -7200.00+12470.76j;
}

object node {
  name R4_25_00_1_node_225;
  phases ABCN;
  nominal_voltage 14400.0;
  voltage_A 14400.0+0.0j;
  voltage_B -7200.00-12470.76j;
  voltage_C -7200.00+12470.76j;
}

object node {
  name R4_25_00_1_node_20;
  phases ABCN;
  nominal_voltage 14400.0;
  voltage_A 14400.0+0.0j;
  voltage_B -7200.00-12470.76j;
  voltage_C -7200.00+12470.76j;
}

object node {
  name R4_25_00_1_node_17;
  phases ABCN;
  nominal_voltage 14400.0;
  voltage_A 14400.0+0.0j;
  voltage_B -7200.00-12470.76j;
  voltage_C -7200.00+12470.76j;
}

object node {
  name R4_25_00_1_node_179;
  phases CN;
  nominal_voltage 14400.0;
  voltage_C -7200.00+12470.76j;
}

object node {
  name R4_25_00_1_node_54;
  phases CN;
  nominal_voltage 14400.0;
  voltage_C -7200.00+12470.76j;
}

object node {
  name R4_25_00_1_node_201;
  phases CN;
  nominal_voltage 14400.0;
  voltage_C -7200.00+12470.76j;
}

object node {
  name R4_25_00_1_node_202;
  phases CN;
  nominal_voltage 14400.0;
  voltage_C -7200.00+12470.76j;
}

object node {
  name R4_25_00_1_node_200;
  phases CN;
  nominal_voltage 14400.0;
  voltage_C -7200.00+12470.76j;
}

object node {
  name R4_25_00_1_node_62;
  phases CN;
  nominal_voltage 14400.0;
  voltage_C -7200.00+12470.76j;
}

object node {
  name R4_25_00_1_node_61;
  phases CN;
  nominal_voltage 14400.0;
  voltage_C -7200.00+12470.76j;
}

object node {
  name R4_25_00_1_node_197;
  phases CN;
  nominal_voltage 14400.0;
  voltage_C -7200.00+12470.76j;
}

object node {
  name R4_25_00_1_node_198;
  phases CN;
  nominal_voltage 14400.0;
  voltage_C -7200.00+12470.76j;
}

object node {
  name R4_25_00_1_node_60;
  phases CN;
  nominal_voltage 14400.0;
  voltage_C -7200.00+12470.76j;
}

object node {
  name R4_25_00_1_node_63;
  phases CN;
  nominal_voltage 14400.0;
  voltage_C -7200.00+12470.76j;
}

object node {
  name R4_25_00_1_node_6;
  phases BN;
  nominal_voltage 14400.0;
  voltage_B -7200.00-12470.76j;
}

object node {
  name R4_25_00_1_node_129;
  phases BN;
  nominal_voltage 14400.0;
  voltage_B -7200.00-12470.76j;
}

object node {
  name R4_25_00_1_node_160;
  phases CN;
  nominal_voltage 14400.0;
  voltage_C -7200.00+12470.76j;
}

object node {
  name R4_25_00_1_node_67;
  phases CN;
  nominal_voltage 14400.0;
  voltage_C -7200.00+12470.76j;
}

object node {
  name R4_25_00_1_node_205;
  phases CN;
  nominal_voltage 14400.0;
  voltage_C -7200.00+12470.76j;
}

object node {
  name R4_25_00_1_node_208;
  phases CN;
  nominal_voltage 14400.0;
  voltage_C -7200.00+12470.76j;
}

object node {
  name R4_25_00_1_node_209;
  phases CN;
  nominal_voltage 14400.0;
  voltage_C -7200.00+12470.76j;
}

object node {
  name R4_25_00_1_node_196;
  phases CN;
  nominal_voltage 14400.0;
  voltage_C -7200.00+12470.76j;
}

object node {
  name R4_25_00_1_node_126;
  phases AN;
  nominal_voltage 14400.0;
  voltage_A 14400.0+0.0j;
}

object node {
  name R4_25_00_1_node_128;
  phases BN;
  nominal_voltage 14400.0;
  voltage_B -7200.00-12470.76j;
}

object node {
  name R4_25_00_1_node_112;
  phases BN;
  nominal_voltage 14400.0;
  voltage_B -7200.00-12470.76j;
}

object node {
  name R4_25_00_1_node_21;
  phases BN;
  nominal_voltage 14400.0;
  voltage_B -7200.00-12470.76j;
}

object node {
  name R4_25_00_1_node_107;
  phases BN;
  nominal_voltage 14400.0;
  voltage_B -7200.00-12470.76j;
}

object node {
  name R4_25_00_1_node_9;
  phases BN;
  nominal_voltage 14400.0;
  voltage_B -7200.00-12470.76j;
}

object node {
  name R4_25_00_1_node_110;
  phases BN;
  nominal_voltage 14400.0;
  voltage_B -7200.00-12470.76j;
}

object node {
  name R4_25_00_1_node_114;
  phases BN;
  nominal_voltage 14400.0;
  voltage_B -7200.00-12470.76j;
}

object node {
  name R4_25_00_1_node_108;
  phases BN;
  nominal_voltage 14400.0;
  voltage_B -7200.00-12470.76j;
}

object node {
  name R4_25_00_1_node_117;
  phases BN;
  nominal_voltage 14400.0;
  voltage_B -7200.00-12470.76j;
}

object node {
  name R4_25_00_1_node_29;
  phases AN;
  nominal_voltage 14400.0;
  voltage_A 14400.0+0.0j;
}

object node {
  name R4_25_00_1_node_111;
  phases AN;
  nominal_voltage 14400.0;
  voltage_A 14400.0+0.0j;
}

object node {
  name R4_25_00_1_node_14;
  phases CN;
  nominal_voltage 14400.0;
  voltage_C -7200.00+12470.76j;
}

object node {
  name R4_25_00_1_node_109;
  phases CN;
  nominal_voltage 14400.0;
  voltage_C -7200.00+12470.76j;
}

object node {
  name R4_25_00_1_node_132;
  phases CN;
  nominal_voltage 14400.0;
  voltage_C -7200.00+12470.76j;
}

object node {
  name R4_25_00_1_node_133;
  phases CN;
  nominal_voltage 14400.0;
  voltage_C -7200.00+12470.76j;
}

object node {
  name R4_25_00_1_node_146;
  phases CN;
  nominal_voltage 14400.0;
  voltage_C -7200.00+12470.76j;
}

object node {
  name R4_25_00_1_node_148;
  phases CN;
  nominal_voltage 14400.0;
  voltage_C -7200.00+12470.76j;
}

object node {
  name R4_25_00_1_node_170;
  phases CN;
  nominal_voltage 14400.0;
  voltage_C -7200.00+12470.76j;
}

object node {
  name R4_25_00_1_node_183;
  phases CN;
  nominal_voltage 14400.0;
  voltage_C -7200.00+12470.76j;
}

object node {
  name R4_25_00_1_node_16;
  phases CN;
  nominal_voltage 14400.0;
  voltage_C -7200.00+12470.76j;
}

object node {
  name R4_25_00_1_node_193;
  phases CN;
  nominal_voltage 14400.0;
  voltage_C -7200.00+12470.76j;
}

object node {
  name R4_25_00_1_node_184;
  phases CN;
  nominal_voltage 14400.0;
  voltage_C -7200.00+12470.76j;
}

object node {
  name R4_25_00_1_node_27;
  phases CN;
  nominal_voltage 14400.0;
  voltage_C -7200.00+12470.76j;
}

object node {
  name R4_25_00_1_node_182;
  phases CN;
  nominal_voltage 14400.0;
  voltage_C -7200.00+12470.76j;
}

object node {
  name R4_25_00_1_node_28;
  phases CN;
  nominal_voltage 14400.0;
  voltage_C -7200.00+12470.76j;
}

object node {
  name R4_25_00_1_node_180;
  phases CN;
  nominal_voltage 14400.0;
  voltage_C -7200.00+12470.76j;
}

object node {
  name R4_25_00_1_node_181;
  phases CN;
  nominal_voltage 14400.0;
  voltage_C -7200.00+12470.76j;
}

object node {
  name R4_25_00_1_node_226;
  phases CN;
  nominal_voltage 14400.0;
  voltage_C -7200.00+12470.76j;
}

object node {
  name R4_25_00_1_node_185;
  phases CN;
  nominal_voltage 14400.0;
  voltage_C -7200.00+12470.76j;
}

object node {
  name R4_25_00_1_node_194;
  phases CN;
  nominal_voltage 14400.0;
  voltage_C -7200.00+12470.76j;
}

object node {
  name R4_25_00_1_node_70;
  phases CN;
  nominal_voltage 14400.0;
  voltage_C -7200.00+12470.76j;
}

object node {
  name R4_25_00_1_node_147;
  phases CN;
  nominal_voltage 14400.0;
  voltage_C -7200.00+12470.76j;
}

object node {
  name R4_25_00_1_node_58;
  phases CN;
  nominal_voltage 14400.0;
  voltage_C -7200.00+12470.76j;
}

object node {
  name R4_25_00_1_node_140;
  phases CN;
  nominal_voltage 14400.0;
  voltage_C -7200.00+12470.76j;
}

object node {
  name R4_25_00_1_node_139;
  phases CN;
  nominal_voltage 14400.0;
  voltage_C -7200.00+12470.76j;
}

object node {
  name R4_25_00_1_node_136;
  phases CN;
  nominal_voltage 14400.0;
  voltage_C -7200.00+12470.76j;
}

object node {
  name R4_25_00_1_node_169;
  phases CN;
  nominal_voltage 14400.0;
  voltage_C -7200.00+12470.76j;
}

object node {
  name R4_25_00_1_node_175;
  phases CN;
  nominal_voltage 14400.0;
  voltage_C -7200.00+12470.76j;
}

object node {
  name R4_25_00_1_node_173;
  phases CN;
  nominal_voltage 14400.0;
  voltage_C -7200.00+12470.76j;
}

object node {
  name R4_25_00_1_node_172;
  phases CN;
  nominal_voltage 14400.0;
  voltage_C -7200.00+12470.76j;
}

object node {
  name R4_25_00_1_node_113;
  phases BN;
  nominal_voltage 14400.0;
  voltage_B -7200.00-12470.76j;
}

object node {
  name R4_25_00_1_node_115;
  phases BN;
  nominal_voltage 14400.0;
  voltage_B -7200.00-12470.76j;
}

object node {
  name R4_25_00_1_node_178;
  phases BN;
  nominal_voltage 14400.0;
  voltage_B -7200.00-12470.76j;
}

object node {
  name R4_25_00_1_node_157;
  phases AN;
  nominal_voltage 14400.0;
  voltage_A 14400.0+0.0j;
}

object node {
  name R4_25_00_1_node_152;
  phases BN;
  nominal_voltage 14400.0;
  voltage_B -7200.00-12470.76j;
}

object node {
  name R4_25_00_1_node_150;
  phases CN;
  nominal_voltage 14400.0;
  voltage_C -7200.00+12470.76j;
}

object node {
  name R4_25_00_1_node_149;
  phases CN;
  nominal_voltage 14400.0;
  voltage_C -7200.00+12470.76j;
}

object node {
  name R4_25_00_1_node_159;
  phases CN;
  nominal_voltage 14400.0;
  voltage_C -7200.00+12470.76j;
}

object node {
  name R4_25_00_1_node_153;
  phases AN;
  nominal_voltage 14400.0;
  voltage_A 14400.0+0.0j;
}

object node {
  name R4_25_00_1_node_158;
  phases CN;
  nominal_voltage 14400.0;
  voltage_C -7200.00+12470.76j;
}

object node {
  name R4_25_00_1_node_155;
  phases CN;
  nominal_voltage 14400.0;
  voltage_C -7200.00+12470.76j;
}

object node {
  name R4_25_00_1_node_206;
  phases CN;
  nominal_voltage 14400.0;
  voltage_C -7200.00+12470.76j;
}

object node {
  name R4_25_00_1_node_207;
  phases CN;
  nominal_voltage 14400.0;
  voltage_C -7200.00+12470.76j;
}

object node {
  name R4_25_00_1_node_191;
  phases CN;
  nominal_voltage 14400.0;
  voltage_C -7200.00+12470.76j;
}

object node {
  name R4_25_00_1_node_192;
  phases CN;
  nominal_voltage 14400.0;
  voltage_C -7200.00+12470.76j;
}

object node {
  name R4_25_00_1_node_138;
  phases CN;
  nominal_voltage 14400.0;
  voltage_C -7200.00+12470.76j;
}

object node {
  name R4_25_00_1_node_230;
  parent R4_25_00_1_meter_2;
  phases ABCN;
  nominal_voltage 14400.0;
  voltage_A 14400.0+0.0j;
  voltage_B -7200.00-12470.76j;
  voltage_C -7200.00+12470.76j;
}

object node {
  name R4_25_00_1_node_3;
  phases ABCN;
  nominal_voltage 14400.0;
  voltage_A 14400.0+0.0j;
  voltage_B -7200.00-12470.76j;
  voltage_C -7200.00+12470.76j;
}

object node {
  name R4_25_00_1_node_72;
  phases ABCN;
  nominal_voltage 14400.0;
  voltage_A 14400.0+0.0j;
  voltage_B -7200.00-12470.76j;
  voltage_C -7200.00+12470.76j;
}

object node {
  name R4_25_00_1_node_227;
  phases CN;
  nominal_voltage 14400.0;
  voltage_C -7200.00+12470.76j;
}

object node {
  name R4_25_00_1_node_214;
  phases CN;
  nominal_voltage 14400.0;
  voltage_C -7200.00+12470.76j;
}

object node {
  name R4_25_00_1_node_56;
  phases CN;
  nominal_voltage 14400.0;
  voltage_C -7200.00+12470.76j;
}

object node {
  name R4_25_00_1_node_221;
  phases CN;
  nominal_voltage 14400.0;
  voltage_C -7200.00+12470.76j;
}

object node {
  name R4_25_00_1_node_223;
  phases CN;
  nominal_voltage 14400.0;
  voltage_C -7200.00+12470.76j;
}

object node {
  name R4_25_00_1_node_212;
  phases CN;
  nominal_voltage 14400.0;
  voltage_C -7200.00+12470.76j;
}

object node {
  name R4_25_00_1_node_39;
  phases CN;
  nominal_voltage 14400.0;
  voltage_C -7200.00+12470.76j;
}

object node {
  name R4_25_00_1_node_213;
  phases CN;
  nominal_voltage 14400.0;
  voltage_C -7200.00+12470.76j;
}

object node {
  name R4_25_00_1_node_105;
  phases CN;
  nominal_voltage 14400.0;
  voltage_C -7200.00+12470.76j;
}

object node {
  name R4_25_00_1_node_222;
  phases CN;
  nominal_voltage 14400.0;
  voltage_C -7200.00+12470.76j;
}

object node {
  name R4_25_00_1_node_210;
  phases CN;
  nominal_voltage 14400.0;
  voltage_C -7200.00+12470.76j;
}

object node {
  name R4_25_00_1_node_36;
  phases CN;
  nominal_voltage 14400.0;
  voltage_C -7200.00+12470.76j;
}

object node {
  name R4_25_00_1_node_216;
  phases CN;
  nominal_voltage 14400.0;
  voltage_C -7200.00+12470.76j;
}

object node {
  name R4_25_00_1_node_217;
  phases CN;
  nominal_voltage 14400.0;
  voltage_C -7200.00+12470.76j;
}

object node {
  name R4_25_00_1_node_34;
  phases CN;
  nominal_voltage 14400.0;
  voltage_C -7200.00+12470.76j;
}

object node {
  name R4_25_00_1_node_219;
  phases CN;
  nominal_voltage 14400.0;
  voltage_C -7200.00+12470.76j;
}

object node {
  name R4_25_00_1_node_220;
  phases AN;
  nominal_voltage 14400.0;
  voltage_A 14400.0+0.0j;
}

object node {
  name R4_25_00_1_node_211;
  phases CN;
  nominal_voltage 14400.0;
  voltage_C -7200.00+12470.76j;
}

object node {
  name R4_25_00_1_node_215;
  phases CN;
  nominal_voltage 14400.0;
  voltage_C -7200.00+12470.76j;
}

object node {
  name R4_25_00_1_node_218;
  phases CN;
  nominal_voltage 14400.0;
  voltage_C -7200.00+12470.76j;
}

object node {
  name R4_25_00_1_node_224;
  phases CN;
  nominal_voltage 14400.0;
  voltage_C -7200.00+12470.76j;
}

object node {
  name R4_25_00_1_node_228;
  phases CN;
  nominal_voltage 14400.0;
  voltage_C -7200.00+12470.76j;
}

object node {
  name R4_25_00_1_node_229;
  phases CN;
  nominal_voltage 14400.0;
  voltage_C -7200.00+12470.76j;
}

object triplex_node {
  name R4_25_00_1_tn_1;
  phases BS;
  nominal_voltage 120.0;
  voltage_1 -60.00-103.92j;
  voltage_2 -60.00-103.92j;
}

object triplex_meter {
  name R4_25_00_1_tm_1;
  phases BS;
  nominal_voltage 120.0;
  voltage_1 -60.00-103.92j;
  voltage_2 -60.00-103.92j;
}

object triplex_node {
  name R4_25_00_1_tn_2;
  phases CS;
  nominal_voltage 120.0;
  voltage_1 -60.00+103.92j;
  voltage_2 -60.00+103.92j;
}

object triplex_meter {
  name R4_25_00_1_tm_2;
  phases CS;
  nominal_voltage 120.0;
  voltage_1 -60.00+103.92j;
  voltage_2 -60.00+103.92j;
}

object triplex_node {
  name R4_25_00_1_tn_3;
  phases CS;
  nominal_voltage 120.0;
  voltage_1 -60.00+103.92j;
  voltage_2 -60.00+103.92j;
}

object triplex_meter {
  name R4_25_00_1_tm_3;
  phases CS;
  nominal_voltage 120.0;
  voltage_1 -60.00+103.92j;
  voltage_2 -60.00+103.92j;
}

object triplex_node {
  name R4_25_00_1_tn_4;
  phases CS;
  nominal_voltage 120.0;
  voltage_1 -60.00+103.92j;
  voltage_2 -60.00+103.92j;
}

object triplex_meter {
  name R4_25_00_1_tm_4;
  phases CS;
  nominal_voltage 120.0;
  voltage_1 -60.00+103.92j;
  voltage_2 -60.00+103.92j;
}

object triplex_node {
  name R4_25_00_1_tn_5;
  phases CS;
  nominal_voltage 120.0;
  voltage_1 -60.00+103.92j;
  voltage_2 -60.00+103.92j;
}

object triplex_meter {
  name R4_25_00_1_tm_5;
  phases CS;
  nominal_voltage 120.0;
  voltage_1 -60.00+103.92j;
  voltage_2 -60.00+103.92j;
}

object triplex_node {
  name R4_25_00_1_tn_6;
  phases CS;
  nominal_voltage 120.0;
  voltage_1 -60.00+103.92j;
  voltage_2 -60.00+103.92j;
}

object triplex_meter {
  name R4_25_00_1_tm_6;
  phases CS;
  nominal_voltage 120.0;
  voltage_1 -60.00+103.92j;
  voltage_2 -60.00+103.92j;
}

object triplex_node {
  name R4_25_00_1_tn_7;
  phases CS;
  nominal_voltage 120.0;
  voltage_1 -60.00+103.92j;
  voltage_2 -60.00+103.92j;
}

object triplex_meter {
  name R4_25_00_1_tm_7;
  phases CS;
  nominal_voltage 120.0;
  voltage_1 -60.00+103.92j;
  voltage_2 -60.00+103.92j;
}

object triplex_node {
  name R4_25_00_1_tn_8;
  phases CS;
  nominal_voltage 120.0;
  voltage_1 -60.00+103.92j;
  voltage_2 -60.00+103.92j;
}

object triplex_meter {
  name R4_25_00_1_tm_8;
  phases CS;
  nominal_voltage 120.0;
  voltage_1 -60.00+103.92j;
  voltage_2 -60.00+103.92j;
}

object triplex_node {
  name R4_25_00_1_tn_9;
  phases CS;
  nominal_voltage 120.0;
  voltage_1 -60.00+103.92j;
  voltage_2 -60.00+103.92j;
}

object triplex_meter {
  name R4_25_00_1_tm_9;
  phases CS;
  nominal_voltage 120.0;
  voltage_1 -60.00+103.92j;
  voltage_2 -60.00+103.92j;
}

object triplex_node {
  name R4_25_00_1_tn_10;
  phases CS;
  nominal_voltage 120.0;
  voltage_1 -60.00+103.92j;
  voltage_2 -60.00+103.92j;
}

object triplex_meter {
  name R4_25_00_1_tm_10;
  phases CS;
  nominal_voltage 120.0;
  voltage_1 -60.00+103.92j;
  voltage_2 -60.00+103.92j;
}

object triplex_node {
  name R4_25_00_1_tn_11;
  phases CS;
  nominal_voltage 120.0;
  voltage_1 -60.00+103.92j;
  voltage_2 -60.00+103.92j;
}

object triplex_meter {
  name R4_25_00_1_tm_11;
  phases CS;
  nominal_voltage 120.0;
  voltage_1 -60.00+103.92j;
  voltage_2 -60.00+103.92j;
}

object triplex_node {
  name R4_25_00_1_tn_12;
  phases CS;
  nominal_voltage 120.0;
  voltage_1 -60.00+103.92j;
  voltage_2 -60.00+103.92j;
}

object triplex_meter {
  name R4_25_00_1_tm_12;
  phases CS;
  nominal_voltage 120.0;
  voltage_1 -60.00+103.92j;
  voltage_2 -60.00+103.92j;
}

object triplex_node {
  name R4_25_00_1_tn_13;
  phases BS;
  nominal_voltage 120.0;
  voltage_1 -60.00-103.92j;
  voltage_2 -60.00-103.92j;
}

object triplex_meter {
  name R4_25_00_1_tm_13;
  phases BS;
  nominal_voltage 120.0;
  voltage_1 -60.00-103.92j;
  voltage_2 -60.00-103.92j;
}

object triplex_node {
  name R4_25_00_1_tn_14;
  phases BS;
  nominal_voltage 120.0;
  voltage_1 -60.00-103.92j;
  voltage_2 -60.00-103.92j;
}

object triplex_meter {
  name R4_25_00_1_tm_14;
  phases BS;
  nominal_voltage 120.0;
  voltage_1 -60.00-103.92j;
  voltage_2 -60.00-103.92j;
}

object triplex_node {
  name R4_25_00_1_tn_15;
  phases BS;
  nominal_voltage 120.0;
  voltage_1 -60.00-103.92j;
  voltage_2 -60.00-103.92j;
}

object triplex_meter {
  name R4_25_00_1_tm_15;
  phases BS;
  nominal_voltage 120.0;
  voltage_1 -60.00-103.92j;
  voltage_2 -60.00-103.92j;
}

object triplex_node {
  name R4_25_00_1_tn_16;
  phases BS;
  nominal_voltage 120.0;
  voltage_1 -60.00-103.92j;
  voltage_2 -60.00-103.92j;
}

object triplex_meter {
  name R4_25_00_1_tm_16;
  phases BS;
  nominal_voltage 120.0;
  voltage_1 -60.00-103.92j;
  voltage_2 -60.00-103.92j;
}

object triplex_node {
  name R4_25_00_1_tn_17;
  phases BS;
  nominal_voltage 120.0;
  voltage_1 -60.00-103.92j;
  voltage_2 -60.00-103.92j;
}

object triplex_meter {
  name R4_25_00_1_tm_17;
  phases BS;
  nominal_voltage 120.0;
  voltage_1 -60.00-103.92j;
  voltage_2 -60.00-103.92j;
}

object triplex_node {
  name R4_25_00_1_tn_18;
  phases BS;
  nominal_voltage 120.0;
  voltage_1 -60.00-103.92j;
  voltage_2 -60.00-103.92j;
}

object triplex_meter {
  name R4_25_00_1_tm_18;
  phases BS;
  nominal_voltage 120.0;
  voltage_1 -60.00-103.92j;
  voltage_2 -60.00-103.92j;
}

object triplex_node {
  name R4_25_00_1_tn_19;
  phases BS;
  nominal_voltage 120.0;
  voltage_1 -60.00-103.92j;
  voltage_2 -60.00-103.92j;
}

object triplex_meter {
  name R4_25_00_1_tm_19;
  phases BS;
  nominal_voltage 120.0;
  voltage_1 -60.00-103.92j;
  voltage_2 -60.00-103.92j;
}

object triplex_node {
  name R4_25_00_1_tn_20;
  phases BS;
  nominal_voltage 120.0;
  voltage_1 -60.00-103.92j;
  voltage_2 -60.00-103.92j;
}

object triplex_meter {
  name R4_25_00_1_tm_20;
  phases BS;
  nominal_voltage 120.0;
  voltage_1 -60.00-103.92j;
  voltage_2 -60.00-103.92j;
}

object triplex_node {
  name R4_25_00_1_tn_21;
  phases AS;
  nominal_voltage 120.0;
  voltage_1 120.0+0.0j;
  voltage_2 120.0+0.0j;
}

object triplex_meter {
  name R4_25_00_1_tm_21;
  phases AS;
  nominal_voltage 120.0;
  voltage_1 120.0+0.0j;
  voltage_2 120.0+0.0j;
}

object triplex_node {
  name R4_25_00_1_tn_22;
  phases BS;
  nominal_voltage 120.0;
  voltage_1 -60.00-103.92j;
  voltage_2 -60.00-103.92j;
}

object triplex_meter {
  name R4_25_00_1_tm_22;
  phases BS;
  nominal_voltage 120.0;
  voltage_1 -60.00-103.92j;
  voltage_2 -60.00-103.92j;
}

object triplex_node {
  name R4_25_00_1_tn_23;
  phases CS;
  nominal_voltage 120.0;
  voltage_1 -60.00+103.92j;
  voltage_2 -60.00+103.92j;
}

object triplex_meter {
  name R4_25_00_1_tm_23;
  phases CS;
  nominal_voltage 120.0;
  voltage_1 -60.00+103.92j;
  voltage_2 -60.00+103.92j;
}

object triplex_node {
  name R4_25_00_1_tn_24;
  phases BS;
  nominal_voltage 120.0;
  voltage_1 -60.00-103.92j;
  voltage_2 -60.00-103.92j;
}

object triplex_meter {
  name R4_25_00_1_tm_24;
  phases BS;
  nominal_voltage 120.0;
  voltage_1 -60.00-103.92j;
  voltage_2 -60.00-103.92j;
}

object triplex_node {
  name R4_25_00_1_tn_25;
  phases CS;
  nominal_voltage 120.0;
  voltage_1 -60.00+103.92j;
  voltage_2 -60.00+103.92j;
}

object triplex_meter {
  name R4_25_00_1_tm_25;
  phases CS;
  nominal_voltage 120.0;
  voltage_1 -60.00+103.92j;
  voltage_2 -60.00+103.92j;
}

object triplex_node {
  name R4_25_00_1_tn_26;
  phases CS;
  nominal_voltage 120.0;
  voltage_1 -60.00+103.92j;
  voltage_2 -60.00+103.92j;
}

object triplex_meter {
  name R4_25_00_1_tm_26;
  phases CS;
  nominal_voltage 120.0;
  voltage_1 -60.00+103.92j;
  voltage_2 -60.00+103.92j;
}

object triplex_node {
  name R4_25_00_1_tn_27;
  phases CS;
  nominal_voltage 120.0;
  voltage_1 -60.00+103.92j;
  voltage_2 -60.00+103.92j;
}

object triplex_meter {
  name R4_25_00_1_tm_27;
  phases CS;
  nominal_voltage 120.0;
  voltage_1 -60.00+103.92j;
  voltage_2 -60.00+103.92j;
}

object triplex_node {
  name R4_25_00_1_tn_28;
  phases CS;
  nominal_voltage 120.0;
  voltage_1 -60.00+103.92j;
  voltage_2 -60.00+103.92j;
}

object triplex_meter {
  name R4_25_00_1_tm_28;
  phases CS;
  nominal_voltage 120.0;
  voltage_1 -60.00+103.92j;
  voltage_2 -60.00+103.92j;
}

object triplex_node {
  name R4_25_00_1_tn_29;
  phases CS;
  nominal_voltage 120.0;
  voltage_1 -60.00+103.92j;
  voltage_2 -60.00+103.92j;
}

object triplex_meter {
  name R4_25_00_1_tm_29;
  phases CS;
  nominal_voltage 120.0;
  voltage_1 -60.00+103.92j;
  voltage_2 -60.00+103.92j;
}

object triplex_node {
  name R4_25_00_1_tn_30;
  phases CS;
  nominal_voltage 120.0;
  voltage_1 -60.00+103.92j;
  voltage_2 -60.00+103.92j;
}

object triplex_meter {
  name R4_25_00_1_tm_30;
  phases CS;
  nominal_voltage 120.0;
  voltage_1 -60.00+103.92j;
  voltage_2 -60.00+103.92j;
}

object triplex_node {
  name R4_25_00_1_tn_31;
  phases CS;
  nominal_voltage 120.0;
  voltage_1 -60.00+103.92j;
  voltage_2 -60.00+103.92j;
}

object triplex_meter {
  name R4_25_00_1_tm_31;
  phases CS;
  nominal_voltage 120.0;
  voltage_1 -60.00+103.92j;
  voltage_2 -60.00+103.92j;
}

object triplex_node {
  name R4_25_00_1_tn_32;
  phases CS;
  nominal_voltage 120.0;
  voltage_1 -60.00+103.92j;
  voltage_2 -60.00+103.92j;
}

object triplex_meter {
  name R4_25_00_1_tm_32;
  phases CS;
  nominal_voltage 120.0;
  voltage_1 -60.00+103.92j;
  voltage_2 -60.00+103.92j;
}

object triplex_node {
  name R4_25_00_1_tn_33;
  phases CS;
  nominal_voltage 120.0;
  voltage_1 -60.00+103.92j;
  voltage_2 -60.00+103.92j;
}

object triplex_meter {
  name R4_25_00_1_tm_33;
  phases CS;
  nominal_voltage 120.0;
  voltage_1 -60.00+103.92j;
  voltage_2 -60.00+103.92j;
}

object triplex_node {
  name R4_25_00_1_tn_34;
  phases CS;
  nominal_voltage 120.0;
  voltage_1 -60.00+103.92j;
  voltage_2 -60.00+103.92j;
}

object triplex_meter {
  name R4_25_00_1_tm_34;
  phases CS;
  nominal_voltage 120.0;
  voltage_1 -60.00+103.92j;
  voltage_2 -60.00+103.92j;
}

object triplex_node {
  name R4_25_00_1_tn_35;
  phases CS;
  nominal_voltage 120.0;
  voltage_1 -60.00+103.92j;
  voltage_2 -60.00+103.92j;
}

object triplex_meter {
  name R4_25_00_1_tm_35;
  phases CS;
  nominal_voltage 120.0;
  voltage_1 -60.00+103.92j;
  voltage_2 -60.00+103.92j;
}

object triplex_node {
  name R4_25_00_1_tn_36;
  phases CS;
  nominal_voltage 120.0;
  voltage_1 -60.00+103.92j;
  voltage_2 -60.00+103.92j;
}

object triplex_meter {
  name R4_25_00_1_tm_36;
  phases CS;
  nominal_voltage 120.0;
  voltage_1 -60.00+103.92j;
  voltage_2 -60.00+103.92j;
}

object triplex_node {
  name R4_25_00_1_tn_37;
  phases CS;
  nominal_voltage 120.0;
  voltage_1 -60.00+103.92j;
  voltage_2 -60.00+103.92j;
}

object triplex_meter {
  name R4_25_00_1_tm_37;
  phases CS;
  nominal_voltage 120.0;
  voltage_1 -60.00+103.92j;
  voltage_2 -60.00+103.92j;
}

object triplex_node {
  name R4_25_00_1_tn_38;
  phases CS;
  nominal_voltage 120.0;
  voltage_1 -60.00+103.92j;
  voltage_2 -60.00+103.92j;
}

object triplex_meter {
  name R4_25_00_1_tm_38;
  phases CS;
  nominal_voltage 120.0;
  voltage_1 -60.00+103.92j;
  voltage_2 -60.00+103.92j;
}

object triplex_node {
  name R4_25_00_1_tn_39;
  phases AS;
  nominal_voltage 120.0;
  voltage_1 120.0+0.0j;
  voltage_2 120.0+0.0j;
}

object triplex_meter {
  name R4_25_00_1_tm_39;
  phases AS;
  nominal_voltage 120.0;
  voltage_1 120.0+0.0j;
  voltage_2 120.0+0.0j;
}

object triplex_node {
  name R4_25_00_1_tn_40;
  phases BS;
  nominal_voltage 120.0;
  voltage_1 -60.00-103.92j;
  voltage_2 -60.00-103.92j;
}

object triplex_meter {
  name R4_25_00_1_tm_40;
  phases BS;
  nominal_voltage 120.0;
  voltage_1 -60.00-103.92j;
  voltage_2 -60.00-103.92j;
}

object triplex_node {
  name R4_25_00_1_tn_41;
  phases CS;
  nominal_voltage 120.0;
  voltage_1 -60.00+103.92j;
  voltage_2 -60.00+103.92j;
}

object triplex_meter {
  name R4_25_00_1_tm_41;
  phases CS;
  nominal_voltage 120.0;
  voltage_1 -60.00+103.92j;
  voltage_2 -60.00+103.92j;
}

object triplex_node {
  name R4_25_00_1_tn_42;
  phases AS;
  nominal_voltage 120.0;
  voltage_1 120.0+0.0j;
  voltage_2 120.0+0.0j;
}

object triplex_meter {
  name R4_25_00_1_tm_42;
  phases AS;
  nominal_voltage 120.0;
  voltage_1 120.0+0.0j;
  voltage_2 120.0+0.0j;
}

object triplex_node {
  name R4_25_00_1_tn_43;
  phases BS;
  nominal_voltage 120.0;
  voltage_1 -60.00-103.92j;
  voltage_2 -60.00-103.92j;
}

object triplex_meter {
  name R4_25_00_1_tm_43;
  phases BS;
  nominal_voltage 120.0;
  voltage_1 -60.00-103.92j;
  voltage_2 -60.00-103.92j;
}

object triplex_node {
  name R4_25_00_1_tn_44;
  phases CS;
  nominal_voltage 120.0;
  voltage_1 -60.00+103.92j;
  voltage_2 -60.00+103.92j;
}

object triplex_meter {
  name R4_25_00_1_tm_44;
  phases CS;
  nominal_voltage 120.0;
  voltage_1 -60.00+103.92j;
  voltage_2 -60.00+103.92j;
}

object triplex_node {
  name R4_25_00_1_tn_45;
  phases AS;
  nominal_voltage 120.0;
  voltage_1 120.0+0.0j;
  voltage_2 120.0+0.0j;
}

object triplex_meter {
  name R4_25_00_1_tm_45;
  phases AS;
  nominal_voltage 120.0;
  voltage_1 120.0+0.0j;
  voltage_2 120.0+0.0j;
}

object triplex_node {
  name R4_25_00_1_tn_46;
  phases BS;
  nominal_voltage 120.0;
  voltage_1 -60.00-103.92j;
  voltage_2 -60.00-103.92j;
}

object triplex_meter {
  name R4_25_00_1_tm_46;
  phases BS;
  nominal_voltage 120.0;
  voltage_1 -60.00-103.92j;
  voltage_2 -60.00-103.92j;
}

object triplex_node {
  name R4_25_00_1_tn_47;
  phases CS;
  nominal_voltage 120.0;
  voltage_1 -60.00+103.92j;
  voltage_2 -60.00+103.92j;
}

object triplex_meter {
  name R4_25_00_1_tm_47;
  phases CS;
  nominal_voltage 120.0;
  voltage_1 -60.00+103.92j;
  voltage_2 -60.00+103.92j;
}

object triplex_node {
  name R4_25_00_1_tn_48;
  phases AS;
  nominal_voltage 120.0;
  voltage_1 120.0+0.0j;
  voltage_2 120.0+0.0j;
}

object triplex_meter {
  name R4_25_00_1_tm_48;
  phases AS;
  nominal_voltage 120.0;
  voltage_1 120.0+0.0j;
  voltage_2 120.0+0.0j;
}

object triplex_node {
  name R4_25_00_1_tn_49;
  phases BS;
  nominal_voltage 120.0;
  voltage_1 -60.00-103.92j;
  voltage_2 -60.00-103.92j;
}

object triplex_meter {
  name R4_25_00_1_tm_49;
  phases BS;
  nominal_voltage 120.0;
  voltage_1 -60.00-103.92j;
  voltage_2 -60.00-103.92j;
}

object triplex_node {
  name R4_25_00_1_tn_50;
  phases CS;
  nominal_voltage 120.0;
  voltage_1 -60.00+103.92j;
  voltage_2 -60.00+103.92j;
}

object triplex_meter {
  name R4_25_00_1_tm_50;
  phases CS;
  nominal_voltage 120.0;
  voltage_1 -60.00+103.92j;
  voltage_2 -60.00+103.92j;
}

object triplex_node {
  name R4_25_00_1_tn_51;
  phases AS;
  nominal_voltage 120.0;
  voltage_1 120.0+0.0j;
  voltage_2 120.0+0.0j;
}

object triplex_meter {
  name R4_25_00_1_tm_51;
  phases AS;
  nominal_voltage 120.0;
  voltage_1 120.0+0.0j;
  voltage_2 120.0+0.0j;
}

object triplex_node {
  name R4_25_00_1_tn_52;
  phases BS;
  nominal_voltage 120.0;
  voltage_1 -60.00-103.92j;
  voltage_2 -60.00-103.92j;
}

object triplex_meter {
  name R4_25_00_1_tm_52;
  phases BS;
  nominal_voltage 120.0;
  voltage_1 -60.00-103.92j;
  voltage_2 -60.00-103.92j;
}

object triplex_node {
  name R4_25_00_1_tn_53;
  phases CS;
  nominal_voltage 120.0;
  voltage_1 -60.00+103.92j;
  voltage_2 -60.00+103.92j;
}

object triplex_meter {
  name R4_25_00_1_tm_53;
  phases CS;
  nominal_voltage 120.0;
  voltage_1 -60.00+103.92j;
  voltage_2 -60.00+103.92j;
}

object triplex_node {
  name R4_25_00_1_tn_54;
  phases CS;
  nominal_voltage 120.0;
  voltage_1 -60.00+103.92j;
  voltage_2 -60.00+103.92j;
}

object triplex_meter {
  name R4_25_00_1_tm_54;
  phases CS;
  nominal_voltage 120.0;
  voltage_1 -60.00+103.92j;
  voltage_2 -60.00+103.92j;
}

object triplex_node {
  name R4_25_00_1_tn_55;
  phases AS;
  nominal_voltage 120.0;
  voltage_1 120.0+0.0j;
  voltage_2 120.0+0.0j;
}

object triplex_meter {
  name R4_25_00_1_tm_55;
  phases AS;
  nominal_voltage 120.0;
  voltage_1 120.0+0.0j;
  voltage_2 120.0+0.0j;
}

object triplex_node {
  name R4_25_00_1_tn_56;
  phases BS;
  nominal_voltage 120.0;
  voltage_1 -60.00-103.92j;
  voltage_2 -60.00-103.92j;
}

object triplex_meter {
  name R4_25_00_1_tm_56;
  phases BS;
  nominal_voltage 120.0;
  voltage_1 -60.00-103.92j;
  voltage_2 -60.00-103.92j;
}

object triplex_node {
  name R4_25_00_1_tn_57;
  phases CS;
  nominal_voltage 120.0;
  voltage_1 -60.00+103.92j;
  voltage_2 -60.00+103.92j;
}

object triplex_meter {
  name R4_25_00_1_tm_57;
  phases CS;
  nominal_voltage 120.0;
  voltage_1 -60.00+103.92j;
  voltage_2 -60.00+103.92j;
}

object triplex_node {
  name R4_25_00_1_tn_58;
  phases AS;
  nominal_voltage 120.0;
  voltage_1 120.0+0.0j;
  voltage_2 120.0+0.0j;
}

object triplex_meter {
  name R4_25_00_1_tm_58;
  phases AS;
  nominal_voltage 120.0;
  voltage_1 120.0+0.0j;
  voltage_2 120.0+0.0j;
}

object triplex_node {
  name R4_25_00_1_tn_59;
  phases BS;
  nominal_voltage 120.0;
  voltage_1 -60.00-103.92j;
  voltage_2 -60.00-103.92j;
}

object triplex_meter {
  name R4_25_00_1_tm_59;
  phases BS;
  nominal_voltage 120.0;
  voltage_1 -60.00-103.92j;
  voltage_2 -60.00-103.92j;
}

object triplex_node {
  name R4_25_00_1_tn_60;
  phases CS;
  nominal_voltage 120.0;
  voltage_1 -60.00+103.92j;
  voltage_2 -60.00+103.92j;
}

object triplex_meter {
  name R4_25_00_1_tm_60;
  phases CS;
  nominal_voltage 120.0;
  voltage_1 -60.00+103.92j;
  voltage_2 -60.00+103.92j;
}

object triplex_node {
  name R4_25_00_1_tn_61;
  phases CS;
  nominal_voltage 120.0;
  voltage_1 -60.00+103.92j;
  voltage_2 -60.00+103.92j;
}

object triplex_meter {
  name R4_25_00_1_tm_61;
  phases CS;
  nominal_voltage 120.0;
  voltage_1 -60.00+103.92j;
  voltage_2 -60.00+103.92j;
}

object triplex_node {
  name R4_25_00_1_tn_62;
  phases CS;
  nominal_voltage 120.0;
  voltage_1 -60.00+103.92j;
  voltage_2 -60.00+103.92j;
}

object triplex_meter {
  name R4_25_00_1_tm_62;
  phases CS;
  nominal_voltage 120.0;
  voltage_1 -60.00+103.92j;
  voltage_2 -60.00+103.92j;
}

object triplex_node {
  name R4_25_00_1_tn_63;
  phases CS;
  nominal_voltage 120.0;
  voltage_1 -60.00+103.92j;
  voltage_2 -60.00+103.92j;
}

object triplex_meter {
  name R4_25_00_1_tm_63;
  phases CS;
  nominal_voltage 120.0;
  voltage_1 -60.00+103.92j;
  voltage_2 -60.00+103.92j;
}

object triplex_node {
  name R4_25_00_1_tn_64;
  phases CS;
  nominal_voltage 120.0;
  voltage_1 -60.00+103.92j;
  voltage_2 -60.00+103.92j;
}

object triplex_meter {
  name R4_25_00_1_tm_64;
  phases CS;
  nominal_voltage 120.0;
  voltage_1 -60.00+103.92j;
  voltage_2 -60.00+103.92j;
}

object triplex_node {
  name R4_25_00_1_tn_65;
  phases CS;
  nominal_voltage 120.0;
  voltage_1 -60.00+103.92j;
  voltage_2 -60.00+103.92j;
}

object triplex_meter {
  name R4_25_00_1_tm_65;
  phases CS;
  nominal_voltage 120.0;
  voltage_1 -60.00+103.92j;
  voltage_2 -60.00+103.92j;
}

object triplex_node {
  name R4_25_00_1_tn_66;
  phases CS;
  nominal_voltage 120.0;
  voltage_1 -60.00+103.92j;
  voltage_2 -60.00+103.92j;
}

object triplex_meter {
  name R4_25_00_1_tm_66;
  phases CS;
  nominal_voltage 120.0;
  voltage_1 -60.00+103.92j;
  voltage_2 -60.00+103.92j;
}

object triplex_node {
  name R4_25_00_1_tn_67;
  phases CS;
  nominal_voltage 120.0;
  voltage_1 -60.00+103.92j;
  voltage_2 -60.00+103.92j;
}

object triplex_meter {
  name R4_25_00_1_tm_67;
  phases CS;
  nominal_voltage 120.0;
  voltage_1 -60.00+103.92j;
  voltage_2 -60.00+103.92j;
}

object triplex_node {
  name R4_25_00_1_tn_68;
  phases CS;
  nominal_voltage 120.0;
  voltage_1 -60.00+103.92j;
  voltage_2 -60.00+103.92j;
}

object triplex_meter {
  name R4_25_00_1_tm_68;
  phases CS;
  nominal_voltage 120.0;
  voltage_1 -60.00+103.92j;
  voltage_2 -60.00+103.92j;
}

object triplex_node {
  name R4_25_00_1_tn_69;
  phases CS;
  nominal_voltage 120.0;
  voltage_1 -60.00+103.92j;
  voltage_2 -60.00+103.92j;
}

object triplex_meter {
  name R4_25_00_1_tm_69;
  phases CS;
  nominal_voltage 120.0;
  voltage_1 -60.00+103.92j;
  voltage_2 -60.00+103.92j;
}

object triplex_node {
  name R4_25_00_1_tn_70;
  phases CS;
  nominal_voltage 120.0;
  voltage_1 -60.00+103.92j;
  voltage_2 -60.00+103.92j;
}

object triplex_meter {
  name R4_25_00_1_tm_70;
  phases CS;
  nominal_voltage 120.0;
  voltage_1 -60.00+103.92j;
  voltage_2 -60.00+103.92j;
}

object triplex_node {
  name R4_25_00_1_tn_71;
  phases CS;
  nominal_voltage 120.0;
  voltage_1 -60.00+103.92j;
  voltage_2 -60.00+103.92j;
}

object triplex_meter {
  name R4_25_00_1_tm_71;
  phases CS;
  nominal_voltage 120.0;
  voltage_1 -60.00+103.92j;
  voltage_2 -60.00+103.92j;
}

object triplex_node {
  name R4_25_00_1_tn_72;
  phases BS;
  nominal_voltage 120.0;
  voltage_1 -60.00-103.92j;
  voltage_2 -60.00-103.92j;
}

object triplex_meter {
  name R4_25_00_1_tm_72;
  phases BS;
  nominal_voltage 120.0;
  voltage_1 -60.00-103.92j;
  voltage_2 -60.00-103.92j;
}

object triplex_node {
  name R4_25_00_1_tn_73;
  phases CS;
  nominal_voltage 120.0;
  voltage_1 -60.00+103.92j;
  voltage_2 -60.00+103.92j;
}

object triplex_meter {
  name R4_25_00_1_tm_73;
  phases CS;
  nominal_voltage 120.0;
  voltage_1 -60.00+103.92j;
  voltage_2 -60.00+103.92j;
}

object triplex_node {
  name R4_25_00_1_tn_74;
  phases CS;
  nominal_voltage 120.0;
  voltage_1 -60.00+103.92j;
  voltage_2 -60.00+103.92j;
}

object triplex_meter {
  name R4_25_00_1_tm_74;
  phases CS;
  nominal_voltage 120.0;
  voltage_1 -60.00+103.92j;
  voltage_2 -60.00+103.92j;
}

object triplex_node {
  name R4_25_00_1_tn_75;
  phases CS;
  nominal_voltage 120.0;
  voltage_1 -60.00+103.92j;
  voltage_2 -60.00+103.92j;
}

object triplex_meter {
  name R4_25_00_1_tm_75;
  phases CS;
  nominal_voltage 120.0;
  voltage_1 -60.00+103.92j;
  voltage_2 -60.00+103.92j;
}

object triplex_node {
  name R4_25_00_1_tn_76;
  phases CS;
  nominal_voltage 120.0;
  voltage_1 -60.00+103.92j;
  voltage_2 -60.00+103.92j;
}

object triplex_meter {
  name R4_25_00_1_tm_76;
  phases CS;
  nominal_voltage 120.0;
  voltage_1 -60.00+103.92j;
  voltage_2 -60.00+103.92j;
}

object triplex_node {
  name R4_25_00_1_tn_77;
  phases CS;
  nominal_voltage 120.0;
  voltage_1 -60.00+103.92j;
  voltage_2 -60.00+103.92j;
}

object triplex_meter {
  name R4_25_00_1_tm_77;
  phases CS;
  nominal_voltage 120.0;
  voltage_1 -60.00+103.92j;
  voltage_2 -60.00+103.92j;
}

object triplex_node {
  name R4_25_00_1_tn_78;
  phases AS;
  nominal_voltage 120.0;
  voltage_1 120.0+0.0j;
  voltage_2 120.0+0.0j;
}

object triplex_meter {
  name R4_25_00_1_tm_78;
  phases AS;
  nominal_voltage 120.0;
  voltage_1 120.0+0.0j;
  voltage_2 120.0+0.0j;
}

object triplex_node {
  name R4_25_00_1_tn_79;
  phases BS;
  nominal_voltage 120.0;
  voltage_1 -60.00-103.92j;
  voltage_2 -60.00-103.92j;
}

object triplex_meter {
  name R4_25_00_1_tm_79;
  phases BS;
  nominal_voltage 120.0;
  voltage_1 -60.00-103.92j;
  voltage_2 -60.00-103.92j;
}

object triplex_node {
  name R4_25_00_1_tn_80;
  phases BS;
  nominal_voltage 120.0;
  voltage_1 -60.00-103.92j;
  voltage_2 -60.00-103.92j;
}

object triplex_meter {
  name R4_25_00_1_tm_80;
  phases BS;
  nominal_voltage 120.0;
  voltage_1 -60.00-103.92j;
  voltage_2 -60.00-103.92j;
}

object triplex_node {
  name R4_25_00_1_tn_81;
  phases BS;
  nominal_voltage 120.0;
  voltage_1 -60.00-103.92j;
  voltage_2 -60.00-103.92j;
}

object triplex_meter {
  name R4_25_00_1_tm_81;
  phases BS;
  nominal_voltage 120.0;
  voltage_1 -60.00-103.92j;
  voltage_2 -60.00-103.92j;
}

object triplex_node {
  name R4_25_00_1_tn_82;
  phases BS;
  nominal_voltage 120.0;
  voltage_1 -60.00-103.92j;
  voltage_2 -60.00-103.92j;
}

object triplex_meter {
  name R4_25_00_1_tm_82;
  phases BS;
  nominal_voltage 120.0;
  voltage_1 -60.00-103.92j;
  voltage_2 -60.00-103.92j;
}

object triplex_node {
  name R4_25_00_1_tn_83;
  phases BS;
  nominal_voltage 120.0;
  voltage_1 -60.00-103.92j;
  voltage_2 -60.00-103.92j;
}

object triplex_meter {
  name R4_25_00_1_tm_83;
  phases BS;
  nominal_voltage 120.0;
  voltage_1 -60.00-103.92j;
  voltage_2 -60.00-103.92j;
}

object triplex_node {
  name R4_25_00_1_tn_84;
  phases AS;
  nominal_voltage 120.0;
  voltage_1 120.0+0.0j;
  voltage_2 120.0+0.0j;
}

object triplex_meter {
  name R4_25_00_1_tm_84;
  phases AS;
  nominal_voltage 120.0;
  voltage_1 120.0+0.0j;
  voltage_2 120.0+0.0j;
}

object triplex_node {
  name R4_25_00_1_tn_85;
  phases CS;
  nominal_voltage 120.0;
  voltage_1 -60.00+103.92j;
  voltage_2 -60.00+103.92j;
}

object triplex_meter {
  name R4_25_00_1_tm_85;
  phases CS;
  nominal_voltage 120.0;
  voltage_1 -60.00+103.92j;
  voltage_2 -60.00+103.92j;
}

object triplex_node {
  name R4_25_00_1_tn_86;
  phases CS;
  nominal_voltage 120.0;
  voltage_1 -60.00+103.92j;
  voltage_2 -60.00+103.92j;
}

object triplex_meter {
  name R4_25_00_1_tm_86;
  phases CS;
  nominal_voltage 120.0;
  voltage_1 -60.00+103.92j;
  voltage_2 -60.00+103.92j;
}

object triplex_node {
  name R4_25_00_1_tn_87;
  phases CS;
  nominal_voltage 120.0;
  voltage_1 -60.00+103.92j;
  voltage_2 -60.00+103.92j;
}

object triplex_meter {
  name R4_25_00_1_tm_87;
  phases CS;
  nominal_voltage 120.0;
  voltage_1 -60.00+103.92j;
  voltage_2 -60.00+103.92j;
}

object triplex_node {
  name R4_25_00_1_tn_88;
  phases CS;
  nominal_voltage 120.0;
  voltage_1 -60.00+103.92j;
  voltage_2 -60.00+103.92j;
}

object triplex_meter {
  name R4_25_00_1_tm_88;
  phases CS;
  nominal_voltage 120.0;
  voltage_1 -60.00+103.92j;
  voltage_2 -60.00+103.92j;
}

object triplex_node {
  name R4_25_00_1_tn_89;
  phases CS;
  nominal_voltage 120.0;
  voltage_1 -60.00+103.92j;
  voltage_2 -60.00+103.92j;
}

object triplex_meter {
  name R4_25_00_1_tm_89;
  phases CS;
  nominal_voltage 120.0;
  voltage_1 -60.00+103.92j;
  voltage_2 -60.00+103.92j;
}

object triplex_node {
  name R4_25_00_1_tn_90;
  phases CS;
  nominal_voltage 120.0;
  voltage_1 -60.00+103.92j;
  voltage_2 -60.00+103.92j;
}

object triplex_meter {
  name R4_25_00_1_tm_90;
  phases CS;
  nominal_voltage 120.0;
  voltage_1 -60.00+103.92j;
  voltage_2 -60.00+103.92j;
}

object triplex_node {
  name R4_25_00_1_tn_91;
  phases CS;
  nominal_voltage 120.0;
  voltage_1 -60.00+103.92j;
  voltage_2 -60.00+103.92j;
}

object triplex_meter {
  name R4_25_00_1_tm_91;
  phases CS;
  nominal_voltage 120.0;
  voltage_1 -60.00+103.92j;
  voltage_2 -60.00+103.92j;
}

object triplex_node {
  name R4_25_00_1_tn_92;
  phases CS;
  nominal_voltage 120.0;
  voltage_1 -60.00+103.92j;
  voltage_2 -60.00+103.92j;
}

object triplex_meter {
  name R4_25_00_1_tm_92;
  phases CS;
  nominal_voltage 120.0;
  voltage_1 -60.00+103.92j;
  voltage_2 -60.00+103.92j;
}

object triplex_node {
  name R4_25_00_1_tn_93;
  phases CS;
  nominal_voltage 120.0;
  voltage_1 -60.00+103.92j;
  voltage_2 -60.00+103.92j;
}

object triplex_meter {
  name R4_25_00_1_tm_93;
  phases CS;
  nominal_voltage 120.0;
  voltage_1 -60.00+103.92j;
  voltage_2 -60.00+103.92j;
}

object triplex_node {
  name R4_25_00_1_tn_94;
  phases CS;
  nominal_voltage 120.0;
  voltage_1 -60.00+103.92j;
  voltage_2 -60.00+103.92j;
}

object triplex_meter {
  name R4_25_00_1_tm_94;
  phases CS;
  nominal_voltage 120.0;
  voltage_1 -60.00+103.92j;
  voltage_2 -60.00+103.92j;
}

object triplex_node {
  name R4_25_00_1_tn_95;
  phases CS;
  nominal_voltage 120.0;
  voltage_1 -60.00+103.92j;
  voltage_2 -60.00+103.92j;
}

object triplex_meter {
  name R4_25_00_1_tm_95;
  phases CS;
  nominal_voltage 120.0;
  voltage_1 -60.00+103.92j;
  voltage_2 -60.00+103.92j;
}

object triplex_node {
  name R4_25_00_1_tn_96;
  phases CS;
  nominal_voltage 120.0;
  voltage_1 -60.00+103.92j;
  voltage_2 -60.00+103.92j;
}

object triplex_meter {
  name R4_25_00_1_tm_96;
  phases CS;
  nominal_voltage 120.0;
  voltage_1 -60.00+103.92j;
  voltage_2 -60.00+103.92j;
}

object triplex_node {
  name R4_25_00_1_tn_97;
  phases CS;
  nominal_voltage 120.0;
  voltage_1 -60.00+103.92j;
  voltage_2 -60.00+103.92j;
}

object triplex_meter {
  name R4_25_00_1_tm_97;
  phases CS;
  nominal_voltage 120.0;
  voltage_1 -60.00+103.92j;
  voltage_2 -60.00+103.92j;
}

object triplex_node {
  name R4_25_00_1_tn_98;
  phases CS;
  nominal_voltage 120.0;
  voltage_1 -60.00+103.92j;
  voltage_2 -60.00+103.92j;
}

object triplex_meter {
  name R4_25_00_1_tm_98;
  phases CS;
  nominal_voltage 120.0;
  voltage_1 -60.00+103.92j;
  voltage_2 -60.00+103.92j;
}

object triplex_node {
  name R4_25_00_1_tn_99;
  phases CS;
  nominal_voltage 120.0;
  voltage_1 -60.00+103.92j;
  voltage_2 -60.00+103.92j;
}

object triplex_meter {
  name R4_25_00_1_tm_99;
  phases CS;
  nominal_voltage 120.0;
  voltage_1 -60.00+103.92j;
  voltage_2 -60.00+103.92j;
}

object triplex_node {
  name R4_25_00_1_tn_100;
  phases CS;
  nominal_voltage 120.0;
  voltage_1 -60.00+103.92j;
  voltage_2 -60.00+103.92j;
}

object triplex_meter {
  name R4_25_00_1_tm_100;
  phases CS;
  nominal_voltage 120.0;
  voltage_1 -60.00+103.92j;
  voltage_2 -60.00+103.92j;
}

object triplex_node {
  name R4_25_00_1_tn_101;
  phases CS;
  nominal_voltage 120.0;
  voltage_1 -60.00+103.92j;
  voltage_2 -60.00+103.92j;
}

object triplex_meter {
  name R4_25_00_1_tm_101;
  phases CS;
  nominal_voltage 120.0;
  voltage_1 -60.00+103.92j;
  voltage_2 -60.00+103.92j;
}

object triplex_node {
  name R4_25_00_1_tn_102;
  phases CS;
  nominal_voltage 120.0;
  voltage_1 -60.00+103.92j;
  voltage_2 -60.00+103.92j;
}

object triplex_meter {
  name R4_25_00_1_tm_102;
  phases CS;
  nominal_voltage 120.0;
  voltage_1 -60.00+103.92j;
  voltage_2 -60.00+103.92j;
}

object triplex_node {
  name R4_25_00_1_tn_103;
  phases CS;
  nominal_voltage 120.0;
  voltage_1 -60.00+103.92j;
  voltage_2 -60.00+103.92j;
}

object triplex_meter {
  name R4_25_00_1_tm_103;
  phases CS;
  nominal_voltage 120.0;
  voltage_1 -60.00+103.92j;
  voltage_2 -60.00+103.92j;
}

object triplex_node {
  name R4_25_00_1_tn_104;
  phases CS;
  nominal_voltage 120.0;
  voltage_1 -60.00+103.92j;
  voltage_2 -60.00+103.92j;
}

object triplex_meter {
  name R4_25_00_1_tm_104;
  phases CS;
  nominal_voltage 120.0;
  voltage_1 -60.00+103.92j;
  voltage_2 -60.00+103.92j;
}

object triplex_node {
  name R4_25_00_1_tn_105;
  phases CS;
  nominal_voltage 120.0;
  voltage_1 -60.00+103.92j;
  voltage_2 -60.00+103.92j;
}

object triplex_meter {
  name R4_25_00_1_tm_105;
  phases CS;
  nominal_voltage 120.0;
  voltage_1 -60.00+103.92j;
  voltage_2 -60.00+103.92j;
}

object triplex_node {
  name R4_25_00_1_tn_106;
  phases CS;
  nominal_voltage 120.0;
  voltage_1 -60.00+103.92j;
  voltage_2 -60.00+103.92j;
}

object triplex_meter {
  name R4_25_00_1_tm_106;
  phases CS;
  nominal_voltage 120.0;
  voltage_1 -60.00+103.92j;
  voltage_2 -60.00+103.92j;
}

object triplex_node {
  name R4_25_00_1_tn_107;
  phases CS;
  nominal_voltage 120.0;
  voltage_1 -60.00+103.92j;
  voltage_2 -60.00+103.92j;
}

object triplex_meter {
  name R4_25_00_1_tm_107;
  phases CS;
  nominal_voltage 120.0;
  voltage_1 -60.00+103.92j;
  voltage_2 -60.00+103.92j;
}

object triplex_node {
  name R4_25_00_1_tn_108;
  phases CS;
  nominal_voltage 120.0;
  voltage_1 -60.00+103.92j;
  voltage_2 -60.00+103.92j;
}

object triplex_meter {
  name R4_25_00_1_tm_108;
  phases CS;
  nominal_voltage 120.0;
  voltage_1 -60.00+103.92j;
  voltage_2 -60.00+103.92j;
}

object triplex_node {
  name R4_25_00_1_tn_109;
  phases CS;
  nominal_voltage 120.0;
  voltage_1 -60.00+103.92j;
  voltage_2 -60.00+103.92j;
}

object triplex_meter {
...